37
0 1
C          -0.47449292374088    0.98116134803177    0.70492019088568
C           0.83123154576385    0.81472384859575    0.53436639065524
S           1.58785046705972   -0.47303092542517   -0.41240966715007
C           0.10344264892403   -1.27417729026060   -0.94344202074304
C          -1.12975726270302   -0.90799929057297   -0.61627647798298
N          -1.48281010178945    0.17423141132426    0.18491981676868
C          -2.81771502928767    0.44456150915853    0.46154872899834
C          -3.74574900051178   -0.59693340595519    0.59907984830907
C          -5.06499791535984   -0.32930463954670    0.87073681423682
C          -5.51048229392571    0.98927880612792    1.03563420960112
C          -4.58111256014100    2.03286812759255    0.89098851956257
C          -3.26662853398138    1.76566024614424    0.60477679565363
N          -6.84643323599427    1.16854143608876    1.27676725963707
N          -7.20522931179676    2.33422324917452    1.66756431889458
C          -8.54604286902340    2.51252917578338    1.83745581015576
C          -9.65875120676315    1.67166503277498    1.54324846232776
N         -10.78471483695968    2.25926310528166    1.85495629547472
C          -9.12261197903453    3.66406250758579    2.35716079816227
N         -10.45685798658509    3.46611580414075    2.35281446371997
C         -11.44414713534146    4.32391023317615    2.78616280092761
C         -12.78977292850896    4.09501107645457    2.76862167502567
C         -13.52018551792516    5.18208800325467    3.29232780198782
C         -12.72947911871689    6.20823596868453    3.69517194573077
S         -11.05683763602783    5.88079305903708    3.44744704176562
H          -0.82310591163269    1.78180387018524    1.33942398319976
H           1.54581608954177    1.47323512772119    0.99456305441820
H           0.28696705080148   -2.10947835936963   -1.59499363345832
H          -1.96624286972268   -1.44875966759599   -1.03250006247421
H          -3.41854566700239   -1.62324582254719    0.52389749027667
H          -5.77551783875934   -1.13209753206947    0.99173701989570
H          -4.93362249306172    3.04863935367274    0.98629702817189
H          -2.58024710331851    2.58618397824096    0.45460838902684
H          -9.64576460631334    0.68852422635924    1.11909668785473
H          -8.67737133243172    4.56721612395212    2.72069303383156
H         -13.21557094927172    3.18366872977098    2.39401886977026
H         -14.59246532037388    5.19617693983155    3.36512304637568
H         -13.01643432608488    7.14620463519726    4.12625327050662
