31
0 1
C           1.10949691877050    0.28161734525640    0.40909700886517
C           2.59220596374833    0.18688854021928    0.22615133671307
C           3.45974033516732    1.02205254138783    0.92257129400547
C           4.82394080379080    0.93769456683639    0.73990991572081
C           5.35810927008657   -0.01003145556065   -0.13810016937493
C           4.48709292172361   -0.84969275943552   -0.84638952127985
C           3.12768920021241   -0.74285648529711   -0.66458800235492
N           6.72791036683207   -0.01577816025430   -0.28484964617345
N           7.23486402555123   -1.04280735333780   -0.84350290744087
C           8.58596304390529   -1.01104590240141   -1.03395694153955
C           9.55196294649903    0.01220617976543   -0.80786392287373
N          10.74759235623519   -0.39085672391681   -1.15141256173939
C           9.32652175934304   -2.06698412625624   -1.54799579184999
N          10.60843915300359   -1.65322112818783   -1.59681628787706
C          11.70987882088810   -2.36002969381074   -2.02994704398908
C          13.00015163490300   -1.91740171786416   -2.07548809284282
C          13.88147029708932   -2.90141898039142   -2.57038990189290
C          13.25587473955201   -4.06218448573533   -2.88980960707811
S          11.56093454520985   -3.99395064818991   -2.59545605179534
H           0.85759992517680    0.95799138286203    1.22184178055378
H           0.68941776706976   -0.69976263522955    0.62506959378053
H           0.64017722018259    0.64834137469608   -0.50390425041476
H           3.05699950161295    1.74955600027508    1.61329376581436
H           5.49995239314202    1.58147986736443    1.28137835816251
H           4.90802614485774   -1.56480252564888   -1.53722678594619
H           2.45912929372025   -1.38864632164004   -1.21707494183425
H           9.38760580485650    0.99615302802652   -0.41874962463331
H           9.02635364553933   -3.04594132683398   -1.86070518003833
H          13.28502996925592   -0.93019070811857   -1.76464200270847
H          14.93927804959095   -2.74786104281600   -2.68311929608435
H          13.67831118248373   -4.96510664576305   -3.28250452185426
